docs/ieee8500_v42_aemo_voltage_rebuild/FINAL_PRIMARY_PCC_CONTROLLABILITY.csv
slot,PCC,bus,line,group,base_rho,parent_terminal,local_node,d_rho_d_consumption_kw,d_rho_d_consumption_kvar,d_I_A_d_consumption_kw,d_I_A_d_consumption_kvar,direct_downstream,P_reduction_upper_bound_kw,coupled_Q_reduction_upper_bound_kvar,linear_coupled_P_reduction_relief_rho,independent_Q_actuator,base_voltage_qualified,derivative_controlmode,dispatch_certified
0,AIDC01,m1125934,Line.ln6504019-5,Primary,0.4570375922977013,1,2,0.00011663120103824753,5.194841861094757e-06,0.046652480415299014,0.0020779367444379027,True,43.81791314102327,14.402251571562385,0.005185353255985123,False,True,off_settled_base,False
0,AIDC01,m1125934,Line.ln6048634-1,Primary,0.45703744701780735,1,2,0.00011663116699647813,5.1938995002109856e-06,0.04665246679859125,0.0020775598000843942,True,43.81791314102327,14.402251571562385,0.005185338192227309,False,True,off_settled_base,False
0,AIDC01,m1125934,Line.ln5866268-1,Primary,0.45703721271631426,1,2,0.00011663111200707621,5.1923983451218625e-06,0.046652444802830484,0.002076959338048745,True,43.81791314102327,14.402251571562385,0.00518531416269323,False,True,off_settled_base,False
0,AIDC01,m1125934,Line.ln5473440-1,Primary,0.45703691680209546,1,2,0.00011663104229739374,5.190532997551012e-06,0.046652416918957496,0.0020762131990204047,True,43.81791314102327,14.402251571562385,0.005185284242955435,False,True,off_settled_base,False
0,AIDC01,m1125934,Line.ln6261021-1,Primary,0.4570364661635823,1,2,0.00011663093571515071,5.187754425872715e-06,0.04665237428606028,0.002075101770349086,True,43.81791314102327,14.402251571562385,0.005185239555055647,False,True,off_settled_base,False
0,AIDC02,m1009805,Line.ln6504019-5,Primary,0.4570375922977013,1,2,0.00012291074514317324,4.423174092549331e-06,0.049164298057269296,0.0017692696370197325,True,14.240821635768508,4.680731716364368,0.0017710536899653274,False,True,off_settled_base,False
0,AIDC02,m1009805,Line.ln6048634-1,Primary,0.45703744701780735,1,2,0.0001229106105733735,4.422212455279517e-06,0.049164244229349396,0.001768884982111807,True,14.240821635768508,4.680731716364368,0.0017710472724147433,False,True,off_settled_base,False
0,AIDC02,m1009805,Line.ln5866268-1,Primary,0.45703721271631426,1,2,0.00012291039490100464,4.420680466105109e-06,0.049164157960401855,0.0017682721864420436,True,14.240821635768508,4.680731716364368,0.001771037030232689,False,True,off_settled_base,False
0,AIDC02,m1009805,Line.ln5473440-1,Primary,0.45703691680209546,1,2,0.00012291012591159056,4.418776896386589e-06,0.049164050364636225,0.0017675107585546357,True,14.240821635768508,4.680731716364368,0.001771024289503265,False,True,off_settled_base,False
0,AIDC02,m1009805,Line.ln6261021-1,Primary,0.4570364661635823,1,2,0.00012290972246981058,4.4159415027444915e-06,0.04916388898792423,0.0017663766010977966,True,14.240821635768508,4.680731716364368,0.0017710052724438873,False,True,off_settled_base,False
0,AIDC03,m1027002,Line.ln6504019-5,Primary,0.4570375922977013,1,2,0.0001228608133322373,4.4623030828749854e-06,0.04914432533289492,0.0017849212331499942,True,4.381791314102326,1.4402251571562381,0.0005447771658615571,False,True,off_settled_base,False
0,AIDC03,m1027002,Line.ln6048634-1,Primary,0.45703744701780735,1,2,0.0001228606787387898,4.461341788525308e-06,0.04914427149551592,0.0017845367154101233,True,4.381791314102326,1.4402251571562381,0.000544775191620852,False,True,off_settled_base,False
0,AIDC03,m1027002,Line.ln5866268-1,Primary,0.45703721271631426,1,2,0.0001228604631764163,4.45980970531501e-06,0.04914418527056652,0.001783923882126004,True,4.381791314102326,1.4402251571562381,0.0005447720405267339,False,True,off_settled_base,False
0,AIDC03,m1027002,Line.ln5473440-1,Primary,0.45703691680209546,1,2,0.00012286019417401262,4.457906303628745e-06,0.049144077669605046,0.001783162521451498,True,4.381791314102326,1.4402251571562381,0.0005447681204873452,False,True,off_settled_base,False
0,AIDC03,m1027002,Line.ln6261021-1,Primary,0.4570364661635823,1,2,0.00012285979062326424,4.455071061476579e-06,0.0491439162493057,0.0017820284245906315,True,4.381791314102326,1.4402251571562381,0.000544762268825107,False,True,off_settled_base,False
0,AIDC04,m1047480,Line.ln6504019-5,Primary,0.4570375922977013,1,2,0.00012247199937923114,4.497958824178916e-06,0.04898879975169246,0.0017991835296715664,True,2.1908956362720784,0.7201125717483643,0.00027156240570197195,False,True,off_settled_base,False
0,AIDC04,m1047480,Line.ln6048634-1,Primary,0.45703744701780735,1,2,0.00012247187228731082,4.4969972510244816e-06,0.04898874891492433,0.0017987989004097926,True,2.1908956362720784,0.7201125717483643,0.00027156143481592114,False,True,off_settled_base,False
0,AIDC04,m1047480,Line.ln5866268-1,Primary,0.45703721271631426,1,2,0.00012247166926310227,4.495465078163674e-06,0.04898866770524091,0.0017981860312654696,True,2.1908956362720784,0.7201125717483643,0.0002715598866741294,False,True,off_settled_base,False
0,AIDC04,m1047480,Line.ln5473440-1,Primary,0.45703691680209546,1,2,0.00012247141562418684,4.49356138940149e-06,0.048988566249674736,0.0017974245557605961,True,2.1908956362720784,0.7201125717483643,0.00027155796010752605,False,True,off_settled_base,False
0,AIDC04,m1047480,Line.ln6261021-1,Primary,0.4570364661635823,1,2,0.0001224710350019309,4.490725924982675e-06,0.04898841400077236,0.00179629036999307,True,2.1908956362720784,0.7201125717483643,0.0002715550843503117,False,True,off_settled_base,False
0,AIDC05,l3029498,Line.ln6504019-5,Primary,0.4570375922977013,1,2,0.00011829961550763324,5.674905144970044e-06,0.047319846203053295,0.0022699620579880175,True,29.02937043148784,9.541492644179332,0.0034883104261708158,False,True,off_settled_base,False
0,AIDC05,l3029498,Line.ln6048634-1,Primary,0.45703744701780735,1,2,0.00011829957374534517,5.673960133262268e-06,0.047319829498138066,0.002269584053304907,True,29.02937043148784,9.541492644179332,0.003488300197015627,False,True,off_settled_base,False
0,AIDC05,l3029498,Line.ln5866268-1,Primary,0.45703721271631426,1,2,0.00011829950649427934,5.672454767874369e-06,0.047319802597711735,0.0022689819071497475,True,29.02937043148784,9.541492644179332,0.00348828388132675,False,True,off_settled_base,False
0,AIDC05,l3029498,Line.ln5473440-1,Primary,0.45703691680209546,1,2,0.00011829942185737075,5.6705839159010285e-06,0.0473197687429483,0.0022682335663604114,True,29.02937043148784,9.541492644179332,0.003488263573650236,False,True,off_settled_base,False
0,AIDC05,l3029498,Line.ln6261021-1,Primary,0.4570364661635823,1,2,0.00011829929293336039,5.667797590647172e-06,0.047319717173344156,0.002267119036258869,True,29.02937043148784,9.541492644179332,0.003488233245365468,False,True,off_settled_base,False
0,AIDC06,m1125976,Line.ln6504019-5,Primary,0.4570375922977013,1,2,0.00011754715021528028,4.750380018681e-06,0.04701886008611211,0.0019001520074723999,True,43.27018922676047,14.222223426917852,0.005153848398870063,False,True,off_settled_base,False
0,AIDC06,m1125976,Line.ln6048634-1,Primary,0.45703744701780735,1,2,0.00011754709337516434,4.749433320155871e-06,0.047018837350065734,0.0018997733280623486,True,43.27018922676047,14.222223426917852,0.005153832475229548,False,True,off_settled_base,False
0,AIDC06,m1125976,Line.ln5866268-1,Primary,0.45703721271631426,1,2,0.00011754700241076166,4.747924918113711e-06,0.04701880096430466,0.0018991699672454843,True,43.27018922676047,14.222223426917852,0.00515380708635177,False,True,off_settled_base,False
0,AIDC06,m1125976,Line.ln5473440-1,Primary,0.45703691680209546,1,2,0.00011754688777468325,4.746050574877536e-06,0.0470187551098733,0.0018984202299510144,True,43.27018922676047,14.222223426917852,0.005153775468698682,False,True,off_settled_base,False
0,AIDC06,m1125976,Line.ln6261021-1,Primary,0.4570364661635823,1,2,0.00011754671465583066,4.743258972400577e-06,0.047018685862332266,0.0018973035889602308,True,43.27018922676047,14.222223426917852,0.005153728275019025,False,True,off_settled_base,False
0,AIDC07,l3048221,Line.ln6504019-5,Primary,0.4570375922977013,1,2,0.00012229959781415167,4.499176336492106e-06,0.04891983912566067,0.0017996705345968422,True,21.908956362720783,7.2011257174836425,0.0027118556861127586,False,True,off_settled_base,False
0,AIDC07,l3048221,Line.ln6048634-1,Primary,0.45703744701780735,1,2,0.00012229947324929324,4.498217104242919e-06,0.0489197892997173,0.0017992868416971675,True,21.908956362720783,7.2011257174836425,0.0027118460494746917,False,True,off_settled_base,False
0,AIDC07,l3048221,Line.ln5866268-1,Primary,0.45703721271631426,1,2,0.00012229927369489246,4.496688413263561e-06,0.048919709477956985,0.0017986753653054244,True,21.908956362720783,7.2011257174836425,0.0027118306691501074,False,True,off_settled_base,False
0,AIDC07,l3048221,Line.ln5473440-1,Primary,0.45703691680209546,1,2,0.000122299024649275,4.494789175246705e-06,0.04891960985971,0.001797915670098682,True,21.908956362720783,7.2011257174836425,0.0027118115361688157,False,True,off_settled_base,False
0,AIDC07,l3048221,Line.ln6261021-1,Primary,0.4570364661635823,1,2,0.00012229865077967306,4.491960155506014e-06,0.04891946031186922,0.0017967840622024056,True,21.908956362720783,7.2011257174836425,0.0027117829729492115,False,True,off_settled_base,False
0,AIDC08,l2728247,Line.ln6504019-5,Primary,0.4570375922977013,1,2,0.00011829662958140474,4.757705181601679e-06,0.0473186518325619,0.0019030820726406716,True,43.81791314102327,14.402251571562385,0.00525203310680255,False,True,off_settled_base,False
0,AIDC08,l2728247,Line.ln6048634-1,Primary,0.45703744701780735,1,2,0.0001182965646298606,4.756756904783499e-06,0.04731862585194424,0.0019027027619133996,True,43.81791314102327,14.402251571562385,0.0052520166034401355,False,True,off_settled_base,False
0,AIDC08,l2728247,Line.ln5866268-1,Primary,0.45703721271631426,1,2,0.00011829646066277566,4.755245618492943e-06,0.047318584265110264,0.001902098247397177,True,43.81791314102327,14.402251571562385,0.005251990281894085,False,True,off_settled_base,False
0,AIDC08,l2728247,Line.ln5473440-1,Primary,0.45703691680209546,1,2,0.00011829633001433915,4.753367857435187e-06,0.04731853200573566,0.0019013471429740747,True,43.81791314102327,14.402251571562385,0.005251957513165096,False,True,off_settled_base,False
0,AIDC08,l2728247,Line.ln6261021-1,Primary,0.4570364661635823,1,2,0.0001182961327912957,4.75057105756016e-06,0.04731845311651828,0.001900228423024064,True,43.81791314102327,14.402251571562385,0.0052519085910475135,False,True,off_settled_base,False
0,AIDC09,m1069420,Line.ln6504019-5,Primary,0.4570375922977013,1,2,0.00012302790953541698,4.666675212011695e-06,0.04921116381416679,0.001866670084804678,True,21.908956362720783,7.2011257174836425,0.0027290184162925718,False,True,off_settled_base,False
0,AIDC09,m1069420,Line.ln6048634-1,Primary,0.45703744701780735,1,2,0.00012302777930478515,4.665712033974367e-06,0.04921111172191406,0.001866284813589747,True,21.908956362720783,7.2011257174836425,0.002729008627109207,False,True,off_settled_base,False
0,AIDC09,m1069420,Line.ln5866268-1,Primary,0.45703721271631426,1,2,0.00012302757127383157,4.664176905644357e-06,0.04921102850953263,0.0018656707622577429,True,21.908956362720783,7.2011257174836425,0.0027289930147160256,False,True,off_settled_base,False
0,AIDC09,m1069420,Line.ln5473440-1,Primary,0.45703691680209546,1,2,0.00012302731150473645,4.662269764615923e-06,0.04921092460189458,0.0018649079058463691,True,21.908956362720783,7.2011257174836425,0.0027289735898839494,False,True,off_settled_base,False
0,AIDC09,m1069420,Line.ln6261021-1,Primary,0.4570364661635823,1,2,0.0001230269216300206,4.659429079983957e-06,0.04921076865200824,0.0018637716319935826,True,21.908956362720783,7.2011257174836425,0.002728944592008655,False,True,off_settled_base,False
0,AIDC10,m1125962,Line.ln6504019-5,Primary,0.4570375922977013,1,2,0.00011729371072957684,4.827362203863039e-06,0.046917484291830736,0.0019309448815452157,True,43.81791314102327,14.402251571562385,0.0052090905136239945,False,True,off_settled_base,False
0,AIDC10,m1125962,Line.ln6048634-1,Primary,0.45703744701780735,1,2,0.00011729365958618176,4.826416631714681e-06,0.046917463834472706,0.0019305666526858722,True,43.81791314102327,14.402251571562385,0.005209074654259191,False,True,off_settled_base,False
0,AIDC10,m1125962,Line.ln5866268-1,Primary,0.45703721271631426,1,2,0.00011729357735090762,4.824910212891664e-06,0.04691743094036305,0.0019299640851566657,True,43.81791314102327,14.402251571562385,0.0052090493550582305,False,True,off_settled_base,False
0,AIDC10,m1125962,Line.ln5473440-1,Primary,0.45703691680209546,1,2,0.00011729347385761035,4.823038273871205e-06,0.04691738954304414,0.001929215309548482,True,43.81791314102327,14.402251571562385,0.005209017860061221,False,True,off_settled_base,False
0,AIDC10,m1125962,Line.ln6261021-1,Primary,0.4570364661635823,1,2,0.00011729331708323909,4.82025007414455e-06,0.046917326833295636,0.00192810002965782,True,43.81791314102327,14.402251571562385,0.005208970834181543,False,True,off_settled_base,False
0,AIDC11,m1026872,Line.ln6504019-5,Primary,0.4570375922977013,1,2,0.00012215454511071977,4.271529145699615e-06,0.04886181804428791,0.001708611658279846,True,21.908956362720783,7.2011257174836425,0.002707038416722845,False,True,off_settled_base,False
0,AIDC11,m1026872,Line.ln6048634-1,Primary,0.45703744701780735,1,2,0.00012215441488069856,4.270568563585764e-06,0.04886176595227942,0.0017082274254343055,True,21.908956362720783,7.2011257174836425,0.00270702864624643,False,True,off_settled_base,False
0,AIDC11,m1026872,Line.ln5866268-1,Primary,0.45703721271631426,1,2,0.0001221542064125114,4.2690382398846705e-06,0.04886168256500456,0.0017076152959538682,True,21.908956362720783,7.2011257174836425,0.002707013058872654,False,True,off_settled_base,False
0,AIDC11,m1026872,Line.ln5473440-1,Primary,0.45703691680209546,1,2,0.00012215394612705155,4.267136845204078e-06,0.04886157845082062,0.0017068547380816312,True,21.908956362720783,7.2011257174836425,0.002706993664107739,False,True,off_settled_base,False
0,AIDC11,m1026872,Line.ln6261021-1,Primary,0.4570364661635823,1,2,0.00012215355560105112,4.2643045279344705e-06,0.04886142224042045,0.0017057218111737882,True,21.908956362720783,7.2011257174836425,0.0027069647122179067,False,True,off_settled_base,False
0,AIDC12,m1142875,Line.ln6504019-5,Primary,0.4570375922977013,1,2,0.00011682283193895082,4.951001427749846e-06,0.04672913277558033,0.0019804005710999384,True,43.81791314102327,14.402251571562385,0.0051902382708829235,False,True,off_settled_base,False
0,AIDC12,m1142875,Line.ln6048634-1,Primary,0.45703744701780735,1,2,0.00011682279088767733,4.950058118680101e-06,0.04672911635507093,0.0019800232474720403,True,43.81791314102327,14.402251571562385,0.005190222886327255,False,True,off_settled_base,False
0,AIDC12,m1142875,Line.ln5866268-1,Primary,0.45703721271631426,1,2,0.00011682272476318256,4.948555245076758e-06,0.046729089905273025,0.001979422098030703,True,43.81791314102327,14.402251571562385,0.005190198344126172,False,True,off_settled_base,False
0,AIDC12,m1142875,Line.ln5473440-1,Primary,0.45703691680209546,1,2,0.00011682264118093033,4.9466880580884e-06,0.04672905647237213,0.00197867522323536,True,43.81791314102327,14.402251571562385,0.005190167790029566,False,True,off_settled_base,False
0,AIDC12,m1142875,Line.ln6261021-1,Primary,0.4570364661635823,1,2,0.0001168225141855439,4.9439067180412355e-06,0.04672900567421756,0.001977562687216494,True,43.81791314102327,14.402251571562385,0.005190122167797689,False,True,off_settled_base,False
0,STA01,sx2955055b,Line.ln6504019-5,Primary,0.4570375922977013,1,2,0.0003563667229818379,2.6019867805510133e-05,0.14254668919273517,0.010407947122204053,True,5.0,0.0,0.0017818336149091896,True,True,off_settled_base,False
0,STA01,sx2955055b,Line.ln6048634-1,Primary,0.45703744701780735,1,2,0.0003563664973277314,2.6017000068823126e-05,0.14254659893109256,0.01040680002752925,True,5.0,0.0,0.001781832486638657,True,True,off_settled_base,False
0,STA01,sx2955055b,Line.ln5866268-1,Primary,0.45703721271631426,1,2,0.0003563661354440417,2.6012430568739253e-05,0.1425464541776167,0.010404972227495701,True,5.0,0.0,0.0017818306772202086,True,True,off_settled_base,False
0,STA01,sx2955055b,Line.ln5473440-1,Primary,0.45703691680209546,1,2,0.0003563656814430938,2.6006752880891604e-05,0.1425462725772375,0.010402701152356642,True,5.0,0.0,0.0017818284072154689,True,True,off_settled_base,False
0,STA01,sx2955055b,Line.ln6261021-1,Primary,0.4570364661635823,1,2,0.0003563649968496285,2.5998295792667436e-05,0.1425459987398514,0.010399318317066975,True,5.0,0.0,0.0017818249842481426,True,True,off_settled_base,False
0,STA02,sx2992657a,Line.ln6504019-5,Primary,0.4570375922977013,1,2,-9.357316895386436e-06,-2.2554459200019306e-06,-0.0037429267581545744,-0.0009021783680007722,True,5.0,0.0,-4.678658447693218e-05,True,True,off_settled_base,False
0,STA02,sx2992657a,Line.ln6048634-1,Primary,0.45703744701780735,1,2,-9.357257052172718e-06,-2.2555154521874954e-06,-0.0037429028208690873,-0.0009022061808749982,True,5.0,0.0,-4.678628526086359e-05,True,True,off_settled_base,False
0,STA02,sx2992657a,Line.ln5866268-1,Primary,0.45703721271631426,1,2,-9.357161541351244e-06,-2.255626207259276e-06,-0.0037428646165404977,-0.0009022504829037103,True,5.0,0.0,-4.678580770675622e-05,True,True,off_settled_base,False
0,STA02,sx2992657a,Line.ln5473440-1,Primary,0.45703691680209546,1,2,-9.357042491053846e-06,-2.2557642589959848e-06,-0.0037428169964215385,-0.0009023057035983939,True,5.0,0.0,-4.678521245526923e-05,True,True,off_settled_base,False
0,STA02,sx2992657a,Line.ln6261021-1,Primary,0.4570364661635823,1,2,-9.356864768356177e-06,-2.2559702160529493e-06,-0.0037427459073424707,-0.0009023880864211797,True,5.0,0.0,-4.6784323841780884e-05,True,True,off_settled_base,False
0,STA03,sx2936211c,Line.ln6504019-5,Primary,0.4570375922977013,1,2,6.227716315837517e-06,-9.445460142754047e-06,0.002491086526335007,-0.003778184057101619,True,5.0,0.0,3.1138581579187585e-05,True,True,off_settled_base,False
0,STA03,sx2936211c,Line.ln6048634-1,Primary,0.45703744701780735,1,2,6.227765213973058e-06,-9.445327543017301e-06,0.002491106085589223,-0.0037781310172069205,True,5.0,0.0,3.113882606986529e-05,True,True,off_settled_base,False
0,STA03,sx2936211c,Line.ln5866268-1,Primary,0.45703721271631426,1,2,6.227843043687953e-06,-9.445115910500235e-06,0.002491137217475181,-0.003778046364200094,True,5.0,0.0,3.1139215218439764e-05,True,True,off_settled_base,False
0,STA03,sx2936211c,Line.ln5473440-1,Primary,0.45703691680209546,1,2,6.227939837899488e-06,-9.444852708095919e-06,0.002491175935159795,-0.0037779410832383675,True,5.0,0.0,3.113969918949744e-05,True,True,off_settled_base,False
0,STA03,sx2936211c,Line.ln6261021-1,Primary,0.4570364661635823,1,2,6.228084049403337e-06,-9.44445991279963e-06,0.002491233619761335,-0.003777783965119852,True,5.0,0.0,3.114042024701669e-05,True,True,off_settled_base,False
0,STA04,sx3085394c,Line.ln6504019-5,Primary,0.4570375922977013,1,2,5.840232554177316e-06,-7.572058716792673e-06,0.0023360930216709264,-0.0030288234867170694,True,5.0,0.0,2.920116277088658e-05,True,True,off_settled_base,False
0,STA04,sx3085394c,Line.ln6048634-1,Primary,0.45703744701780735,1,2,5.840281494084998e-06,-7.571947473139495e-06,0.002336112597633999,-0.003028778989255798,True,5.0,0.0,2.920140747042499e-05,True,True,off_settled_base,False
0,STA04,sx3085394c,Line.ln5866268-1,Primary,0.45703721271631426,1,2,5.8403596389366985e-06,-7.571770287817525e-06,0.0023361438555746794,-0.00302870811512701,True,5.0,0.0,2.9201798194683493e-05,True,True,off_settled_base,False
0,STA04,sx3085394c,Line.ln5473440-1,Primary,0.45703691680209546,1,2,5.840456832800767e-06,-7.571549505619446e-06,0.0023361827331203067,-0.0030286198022477784,True,5.0,0.0,2.9202284164003833e-05,True,True,off_settled_base,False
0,STA04,sx3085394c,Line.ln6261021-1,Primary,0.4570364661635823,1,2,5.840601464135453e-06,-7.571220069751972e-06,0.0023362405856541812,-0.0030284880279007886,True,5.0,0.0,2.9203007320677266e-05,True,True,off_settled_base,False
0,STA05,sx2897766c,Line.ln6504019-5,Primary,0.4570375922977013,1,2,5.85076665982065e-06,-7.569117158656713e-06,0.00234030666392826,-0.003027646863462685,True,5.0,0.0,2.925383329910325e-05,True,True,off_settled_base,False
0,STA05,sx2897766c,Line.ln6048634-1,Primary,0.45703744701780735,1,2,5.850815951696786e-06,-7.569005870705636e-06,0.0023403263806787145,-0.0030276023482822545,True,5.0,0.0,2.925407975848393e-05,True,True,off_settled_base,False
0,STA05,sx2897766c,Line.ln5866268-1,Primary,0.45703721271631426,1,2,5.850894747305713e-06,-7.568828471027356e-06,0.002340357898922285,-0.0030275313884109423,True,5.0,0.0,2.9254473736528563e-05,True,True,off_settled_base,False
0,STA05,sx2897766c,Line.ln5473440-1,Primary,0.45703691680209546,1,2,5.850992640055175e-06,-7.5686075532432895e-06,0.00234039705602207,-0.003027443021297316,True,5.0,0.0,2.9254963200275874e-05,True,True,off_settled_base,False
0,STA05,sx2897766c,Line.ln6261021-1,Primary,0.4570364661635823,1,2,5.8511384884440965e-06,-7.5682777588848005e-06,0.0023404553953776386,-0.00302731110355392,True,5.0,0.0,2.9255692442220482e-05,True,True,off_settled_base,False
0,STA06,sx2822867b,Line.ln6504019-5,Primary,0.4570375922977013,1,2,0.0003853279984399882,3.768311265101021e-05,0.1541311993759953,0.015073245060404084,True,5.0,0.0,0.001926639992199941,True,True,off_settled_base,False
0,STA06,sx2822867b,Line.ln6048634-1,Primary,0.45703744701780735,1,2,0.0003853273307315441,3.768012050819891e-05,0.15413093229261765,0.015072048203279564,True,5.0,0.0,0.0019266366536577206,True,True,off_settled_base,False
0,STA06,sx2822867b,Line.ln5866268-1,Primary,0.45703721271631426,1,2,0.0003853262643916111,3.767535274762368e-05,0.15413050575664444,0.015070141099049472,True,5.0,0.0,0.0019266313219580555,True,True,off_settled_base,False
0,STA06,sx2822867b,Line.ln5473440-1,Primary,0.45703691680209546,1,2,0.00038532493509427224,3.7669428715469966e-05,0.1541299740377089,0.015067771486187986,True,5.0,0.0,0.0019266246754713612,True,True,off_settled_base,False
0,STA06,sx2822867b,Line.ln6261021-1,Primary,0.4570364661635823,1,2,0.00038532294569060266,3.766060409737815e-05,0.15412917827624106,0.015064241638951259,True,5.0,0.0,0.0019266147284530133,True,True,off_settled_base,False
0,STA07,sx3047058a,Line.ln6504019-5,Primary,0.4570375922977013,1,2,-2.555789859193247e-05,-2.887797550421567e-06,-0.010223159436772988,-0.0011551190201686268,True,5.0,0.0,-0.00012778949295966235,True,True,off_settled_base,False
0,STA07,sx3047058a,Line.ln6048634-1,Primary,0.45703744701780735,1,2,-2.55577304760779e-05,-2.8879608772180987e-06,-0.01022309219043116,-0.0011551843508872395,True,5.0,0.0,-0.0001277886523803895,True,True,off_settled_base,False
0,STA07,sx3047058a,Line.ln5866268-1,Primary,0.45703721271631426,1,2,-2.5557463077752196e-05,-2.8882213909398047e-06,-0.010222985231100878,-0.0011552885563759219,True,5.0,0.0,-0.00012778731538876098,True,True,off_settled_base,False
0,STA07,sx3047058a,Line.ln5473440-1,Primary,0.45703691680209546,1,2,-2.5557130242354065e-05,-2.8885453554339247e-06,-0.010222852096941626,-0.0011554181421735699,True,5.0,0.0,-0.00012778565121177032,True,True,off_settled_base,False
0,STA07,sx3047058a,Line.ln6261021-1,Primary,0.4570364661635823,1,2,-2.55566336035129e-05,-2.889028381442005e-06,-0.01022265344140516,-0.001155611352576802,True,5.0,0.0,-0.0001277831680175645,True,True,off_settled_base,False
0,STA08,sx3729298a,Line.ln6504019-5,Primary,0.4570375922977013,1,2,-2.4183234003938292e-05,-2.2816766599154104e-06,-0.009673293601575317,-0.0009126706639661641,True,5.0,0.0,-0.00012091617001969146,True,True,off_settled_base,False
0,STA08,sx3729298a,Line.ln6048634-1,Primary,0.45703744701780735,1,2,-2.4183071637540188e-05,-2.2818324764417586e-06,-0.009673228655016075,-0.0009127329905767034,True,5.0,0.0,-0.00012091535818770094,True,True,off_settled_base,False
0,STA08,sx3729298a,Line.ln5866268-1,Primary,0.45703721271631426,1,2,-2.4182812762146844e-05,-2.282080887233695e-06,-0.009673125104858737,-0.000912832354893478,True,5.0,0.0,-0.00012091406381073422,True,True,off_settled_base,False
0,STA08,sx3729298a,Line.ln5473440-1,Primary,0.45703691680209546,1,2,-2.4182490704544035e-05,-2.282389654606476e-06,-0.009672996281817614,-0.0009129558618425904,True,5.0,0.0,-0.00012091245352272018,True,True,off_settled_base,False
0,STA08,sx3729298a,Line.ln6261021-1,Primary,0.4570364661635823,1,2,-2.418201014511845e-05,-2.2828502229121916e-06,-0.00967280405804738,-0.0009131400891648767,True,5.0,0.0,-0.00012091005072559224,True,True,off_settled_base,False
0,STA09,sx3027133a,Line.ln6504019-5,Primary,0.4570375922977013,1,2,-2.47507339030395e-05,-2.536032732119997e-06,-0.0099002935612158,-0.0010144130928479989,True,5.0,0.0,-0.0001237536695151975,True,True,off_settled_base,False
0,STA09,sx3027133a,Line.ln6048634-1,Primary,0.45703744701780735,1,2,-2.4750569606907247e-05,-2.536192004187754e-06,-0.009900227842762899,-0.0010144768016751016,True,5.0,0.0,-0.00012375284803453623,True,True,off_settled_base,False
0,STA09,sx3027133a,Line.ln5866268-1,Primary,0.45703721271631426,1,2,-2.475030789039767e-05,-2.5364461557764173e-06,-0.009900123156159069,-0.001014578462310567,True,5.0,0.0,-0.00012375153945198836,True,True,off_settled_base,False
0,STA09,sx3027133a,Line.ln5473440-1,Primary,0.45703691680209546,1,2,-2.4749982422106465e-05,-2.536762225474609e-06,-0.009899992968842586,-0.0010147048901898437,True,5.0,0.0,-0.00012374991211053232,True,True,off_settled_base,False
0,STA09,sx3027133a,Line.ln6261021-1,Primary,0.4570364661635823,1,2,-2.4749496595699583e-05,-2.5372334613860126e-06,-0.009899798638279833,-0.001014893384554405,True,5.0,0.0,-0.00012374748297849791,True,True,off_settled_base,False
0,STA10,sx2748125c,Line.ln6504019-5,Primary,0.4570375922977013,1,2,1.156104492550103e-05,-1.965237525913821e-05,0.004624417970200412,-0.007860950103655284,True,5.0,0.0,5.780522462750515e-05,True,True,off_settled_base,False
0,STA10,sx2748125c,Line.ln6048634-1,Primary,0.45703744701780735,1,2,1.156113046113516e-05,-1.965212237337033e-05,0.004624452184454064,-0.007860848949348131,True,5.0,0.0,5.78056523056758e-05,True,True,off_settled_base,False
0,STA10,sx2748125c,Line.ln5866268-1,Primary,0.45703721271631426,1,2,1.1561266483023358e-05,-1.9651719105534537e-05,0.004624506593209343,-0.007860687642213815,True,5.0,0.0,5.780633241511679e-05,True,True,off_settled_base,False
0,STA10,sx2748125c,Line.ln5473440-1,Primary,0.45703691680209546,1,2,1.1561435879103854e-05,-1.9651217426447376e-05,0.004624574351641542,-0.00786048697057895,True,5.0,0.0,5.780717939551927e-05,True,True,off_settled_base,False
0,STA10,sx2748125c,Line.ln6261021-1,Primary,0.4570364661635823,1,2,1.1561688112310398e-05,-1.965046912219548e-05,0.004624675244924159,-0.007860187648878192,True,5.0,0.0,5.780844056155199e-05,True,True,off_settled_base,False
0,STA11,sx3085401a,Line.ln6504019-5,Primary,0.4570375922977013,1,2,-2.3384440591134315e-05,-1.931918867270621e-06,-0.009353776236453726,-0.0007727675469082484,True,5.0,0.0,-0.00011692220295567157,True,True,off_settled_base,False
0,STA11,sx3085401a,Line.ln6048634-1,Primary,0.45703744701780735,1,2,-2.3384281681304575e-05,-1.932070391369445e-06,-0.00935371267252183,-0.0007728281565477779,True,5.0,0.0,-0.00011692140840652288,True,True,off_settled_base,False
0,STA11,sx3085401a,Line.ln5866268-1,Primary,0.45703721271631426,1,2,-2.3384028178502492e-05,-1.93231213294065e-06,-0.009353611271400997,-0.00077292485317626,True,5.0,0.0,-0.00011692014089251246,True,True,off_settled_base,False
0,STA11,sx3085401a,Line.ln5473440-1,Primary,0.45703691680209546,1,2,-2.3383712832947268e-05,-1.9326127468910492e-06,-0.009353485133178907,-0.0007730450987564197,True,5.0,0.0,-0.00011691856416473634,True,True,off_settled_base,False
0,STA11,sx3085401a,Line.ln6261021-1,Primary,0.4570364661635823,1,2,-2.3383242513747016e-05,-1.9330608590772957e-06,-0.009353297005498806,-0.0007732243436309183,True,5.0,0.0,-0.00011691621256873508,True,True,off_settled_base,False
0,STA12,sx2710516a,Line.ln6504019-5,Primary,0.4570375922977013,1,2,-2.5544509236696822e-05,-2.8867101243834625e-06,-0.010217803694678729,-0.001154684049753385,True,5.0,0.0,-0.0001277225461834841,True,True,off_settled_base,False
0,STA12,sx2710516a,Line.ln6048634-1,Primary,0.45703744701780735,1,2,-2.5544341737293585e-05,-2.8868736536014072e-06,-0.010217736694917434,-0.001154749461440563,True,5.0,0.0,-0.00012772170868646793,True,True,off_settled_base,False
0,STA12,sx2710516a,Line.ln5866268-1,Primary,0.45703721271631426,1,2,-2.5544074189642885e-05,-2.887134389367718e-06,-0.010217629675857154,-0.0011548537557470873,True,5.0,0.0,-0.00012772037094821442,True,True,off_settled_base,False
0,STA12,sx2710516a,Line.ln5473440-1,Primary,0.45703691680209546,1,2,-2.5543741593248015e-05,-2.8874586102678457e-06,-0.010217496637299206,-0.0011549834441071383,True,5.0,0.0,-0.00012771870796624007,True,True,off_settled_base,False
0,STA12,sx2710516a,Line.ln6261021-1,Primary,0.4570364661635823,1,2,-2.5543245382120272e-05,-2.8879419316507615e-06,-0.010217298152848109,-0.0011551767726603046,True,5.0,0.0,-0.00012771622691060136,True,True,off_settled_base,False
9,AIDC01,m1125934,Line.ln6504019-5,Primary,0.4221268703189323,1,2,0.00011601349686587992,1.313814248893319e-06,0.04640539874635197,0.0005255256995573276,True,43.81791312042446,14.402251564791882,0.005102391209787731,False,True,off_settled_base,False
9,AIDC01,m1125934,Line.ln6048634-1,Primary,0.4221268321375308,1,2,0.00011601343370820638,1.3127943042090529e-06,0.04640537348328255,0.0005251177216836211,True,43.81791312042446,14.402251564791882,0.0051023737528503536,False,True,off_settled_base,False
9,AIDC01,m1125934,Line.ln5866268-1,Primary,0.4221267687128206,1,2,0.00011601333207617026,1.3111688321743031e-06,0.046405332830468105,0.0005244675328697213,True,43.81791312042446,14.402251564791882,0.005102345889089469,False,True,off_settled_base,False
9,AIDC01,m1125934,Line.ln5473440-1,Primary,0.4221266854847026,1,2,0.000116013204735671,1.3091496670614156e-06,0.0464052818942684,0.0005236598668245662,True,43.81791312042446,14.402251564791882,0.005102311228770629,False,True,off_settled_base,False
9,AIDC01,m1125934,Line.ln6261021-1,Primary,0.42212655242438385,1,2,0.0001160130122997427,1.306141922202686e-06,0.04640520491989708,0.0005224567688810744,True,43.81791312042446,14.402251564791882,0.005102259478331744,False,True,off_settled_base,False
9,AIDC02,m1009805,Line.ln6504019-5,Primary,0.4221268703189323,1,2,0.00012135690202694227,4.4005590740803235e-07,0.04854276081077691,0.00017602236296321294,True,20.81350854452285,6.8410694315891165,0.0025288733702909447,False,True,off_settled_base,False
9,AIDC02,m1009805,Line.ln6048634-1,Primary,0.4221268321375308,1,2,0.00012135673909191569,4.390172145540827e-07,0.048542695636766275,0.00017560688582163309,True,20.81350854452285,6.8410694315891165,0.0025288628732714445,False,True,off_settled_base,False
9,AIDC02,m1009805,Line.ln5866268-1,Primary,0.4221267687128206,1,2,0.00012135647858793619,4.373620312581039e-07,0.048542591435174476,0.00017494481250324156,True,20.81350854452285,6.8410694315891165,0.002528846128045792,False,True,off_settled_base,False
9,AIDC02,m1009805,Line.ln5473440-1,Primary,0.4221266854847026,1,2,0.00012135615391334342,4.3530560545068653e-07,0.04854246156533737,0.0001741222421802746,True,20.81350854452285,6.8410694315891165,0.0025288253022766514,False,True,off_settled_base,False
9,AIDC02,m1009805,Line.ln6261021-1,Primary,0.42212655242438385,1,2,0.00012135566722218383,4.322426187808315e-07,0.04854226688887353,0.0001728970475123326,True,20.81350854452285,6.8410694315891165,0.002528794218421566,False,True,off_settled_base,False
9,AIDC03,m1027002,Line.ln6504019-5,Primary,0.4221268703189323,1,2,0.00012132568961831236,4.780678904692248e-07,0.048530275847324944,0.00019122715618768993,True,4.381791312042446,1.4402251564791884,0.0005323123780994381,False,True,off_settled_base,False
9,AIDC03,m1027002,Line.ln6048634-1,Primary,0.4221268321375308,1,2,0.00012132552659993578,4.77029252959893e-07,0.048530210639974314,0.00019081170118395718,True,4.381791312042446,1.4402251564791884,0.0005323101679150626,False,True,off_settled_base,False
9,AIDC03,m1027002,Line.ln5866268-1,Primary,0.4221267687128206,1,2,0.00012132526600788784,4.7537417699472506e-07,0.04853010640315514,0.00019014967079789002,True,4.381791312042446,1.4402251564791884,0.00053230664237305,False,True,off_settled_base,False
9,AIDC03,m1027002,Line.ln5473440-1,Primary,0.4221266854847026,1,2,0.00012132494092220725,4.7331765926084124e-07,0.0485299763688829,0.0001893270637043365,True,4.381791312042446,1.4402251564791884,0.000532302256066864,False,True,off_settled_base,False
9,AIDC03,m1027002,Line.ln6261021-1,Primary,0.42212655242438385,1,2,0.00012132445391915825,4.70254822831917e-07,0.0485297815676633,0.0001881019291327668,True,4.381791312042446,1.4402251564791884,0.0005322957109470599,False,True,off_settled_base,False
9,AIDC04,m1047480,Line.ln6504019-5,Primary,0.4221268703189323,1,2,0.00012098522797224232,5.143092456638687e-07,0.048394091188896926,0.00020572369826554748,True,4.381791272531126,1.4402251434924456,0.0005308727371410958,False,True,off_settled_base,False
9,AIDC04,m1047480,Line.ln6048634-1,Primary,0.4221268321375308,1,2,0.00012098507285163151,5.132704418153722e-07,0.048394029140652606,0.00020530817672614887,True,4.381791272531126,1.4402251434924456,0.0005308705613235354,False,True,off_settled_base,False
9,AIDC04,m1047480,Line.ln5866268-1,Primary,0.4221267687128206,1,2,0.00012098482473704708,5.116151822748272e-07,0.04839392989481883,0.00020464607290993087,True,4.381791272531126,1.4402251434924456,0.0005308670901908055,False,True,off_settled_base,False
9,AIDC04,m1047480,Line.ln5473440-1,Primary,0.4221266854847026,1,2,0.0001209845153028466,5.095585714209871e-07,0.04839380612113864,0.00020382342856839486,True,4.381791272531126,1.4402251434924456,0.0005308627723320643,False,True,off_settled_base,False
9,AIDC04,m1047480,Line.ln6261021-1,Primary,0.42212655242438385,1,2,0.00012098405148464053,5.064954385070042e-07,0.04839362059385621,0.00020259817540280167,True,4.381791272531126,1.4402251434924456,0.0005308563283764564,False,True,off_settled_base,False
9,AIDC05,l3029498,Line.ln6504019-5,Primary,0.4221268703189323,1,2,0.00011751594638231833,1.7435998964920874e-06,0.04700637855292733,0.0006974399585968349,True,29.029370246612277,9.541492583413673,0.0034280504628941754,False,True,off_settled_base,False
9,AIDC05,l3029498,Line.ln6048634-1,Primary,0.4221268321375308,1,2,0.00011751587524974627,1.7425771094703446e-06,0.04700635009989851,0.0006970308437881378,True,29.029370246612277,9.541492583413673,0.0034280386390456224,False,True,off_settled_base,False
9,AIDC05,l3029498,Line.ln5866268-1,Primary,0.4221267687128206,1,2,0.000117515761079795,1.7409472864715614e-06,0.047006304431918,0.0006963789145886246,True,29.029370246612277,9.541492583413673,0.0034280197738197804,False,True,off_settled_base,False
9,AIDC05,l3029498,Line.ln5473440-1,Primary,0.4221266854847026,1,2,0.00011751561795797505,1.7389225043795697e-06,0.04700624718319002,0.0006955690017518279,True,29.029370246612277,9.541492583413673,0.003427996299640165,False,True,off_settled_base,False
9,AIDC05,l3029498,Line.ln6261021-1,Primary,0.42212655242438385,1,2,0.00011751540220369949,1.735906536931564e-06,0.0470061608814798,0.0006943626147726256,True,29.029370246612277,9.541492583413673,0.0034279612595983808,False,True,off_settled_base,False
9,AIDC06,m1125976,Line.ln6504019-5,Primary,0.4221268703189323,1,2,0.00011677573826859855,8.606737129102093e-07,0.04671029530743942,0.00034426948516408373,True,43.270189206419154,14.222223420231984,0.005065148983438471,False,True,off_settled_base,False
9,AIDC06,m1125976,Line.ln6048634-1,Primary,0.4221268321375308,1,2,0.00011677565242304566,8.596495280621674e-07,0.046710260969218265,0.000343859811224867,True,43.270189206419154,14.222223420231984,0.005065130702699422,False,True,off_settled_base,False
9,AIDC06,m1125976,Line.ln5866268-1,Primary,0.4221267687128206,1,2,0.00011677551495173355,8.580172832228783e-07,0.04671020598069342,0.0003432069132891513,True,43.270189206419154,14.222223420231984,0.005065101540138956,False,True,off_settled_base,False
9,AIDC06,m1125976,Line.ln5473440-1,Primary,0.4221266854847026,1,2,0.00011677534270945755,8.559893867055024e-07,0.04671013708378302,0.00034239575468220096,True,43.270189206419154,14.222223420231984,0.005065065245985741,False,True,off_settled_base,False
9,AIDC06,m1125976,Line.ln6261021-1,Primary,0.42212655242438385,1,2,0.00011677508364818512,8.529690105618659e-07,0.04671003345927405,0.00034118760422474637,True,43.270189206419154,14.222223420231984,0.005065011079891139,False,True,off_settled_base,False
9,AIDC07,l3048221,Line.ln6504019-5,Primary,0.4221268703189323,1,2,0.00012088181061148395,5.231025914931298e-07,0.04835272424459358,0.0002092410365972519,True,21.90895636265563,7.201125717462228,0.0026521612412502764,False,True,off_settled_base,False
9,AIDC07,l3048221,Line.ln6048634-1,Primary,0.4221268321375308,1,2,0.00012088165746756974,5.220660176108449e-07,0.048352662987027895,0.00020882640704433797,True,21.90895636265563,7.201125717462228,0.002652150421528101,False,True,off_settled_base,False
9,AIDC07,l3048221,Line.ln5866268-1,Primary,0.4221267687128206,1,2,0.00012088141244451234,5.20414251775625e-07,0.048352564977804935,0.00020816570071024998,True,21.90895636265563,7.201125717462228,0.0026521331587551935,False,True,off_settled_base,False
9,AIDC07,l3048221,Line.ln5473440-1,Primary,0.4221266854847026,1,2,0.00012088110681249264,5.183615731374491e-07,0.04835244272499706,0.00020734462925497965,True,21.90895636265563,7.201125717462228,0.0026521116810796796,False,True,off_settled_base,False
9,AIDC07,l3048221,Line.ln6261021-1,Primary,0.42212655242438385,1,2,0.00012088064885837357,5.153046224171121e-07,0.04835225954334943,0.00020612184896684482,True,21.90895636265563,7.201125717462228,0.00265207963429642,False,True,off_settled_base,False
9,AIDC08,l2728247,Line.ln6504019-5,Primary,0.4221268703189323,1,2,0.00011744884650308207,8.562880718099297e-07,0.04697953860123283,0.0003425152287239719,True,43.81791312042446,14.402251564791882,0.005158695828388255,False,True,off_settled_base,False
9,AIDC08,l2728247,Line.ln6048634-1,Primary,0.4221268321375308,1,2,0.00011744875235414343,8.552620174573367e-07,0.04697950094165737,0.00034210480698293466,True,43.81791312042446,14.402251564791882,0.005158676925485336,False,True,off_settled_base,False
9,AIDC08,l2728247,Line.ln5866268-1,Primary,0.4221267687128206,1,2,0.00011744860181756023,8.536270068582041e-07,0.04697944072702409,0.00034145080274328166,True,43.81791312042446,14.402251564791882,0.0051586467814524525,False,True,off_settled_base,False
9,AIDC08,l2728247,Line.ln5473440-1,Primary,0.4221266854847026,1,2,0.00011744841312200105,8.515957876931157e-07,0.04697936524880042,0.0003406383150772463,True,43.81791312042446,14.402251564791882,0.0051586092590774355,False,True,off_settled_base,False
9,AIDC08,l2728247,Line.ln6261021-1,Primary,0.42212655242438385,1,2,0.00011744812963171425,8.48570351347222e-07,0.0469792518526857,0.0003394281405388888,True,43.81791312042446,14.402251564791882,0.005158553264029331,False,True,off_settled_base,False
9,AIDC09,m1069420,Line.ln6504019-5,Primary,0.4221268703189323,1,2,0.00012147274473542358,6.720823365891082e-07,0.04858909789416943,0.0002688329346356433,True,21.90895636265563,7.201125717462228,0.0026661808130586657,False,True,off_settled_base,False
9,AIDC09,m1069420,Line.ln6048634-1,Primary,0.4221268321375308,1,2,0.00012147258672146055,6.710418024580278e-07,0.04858903468858422,0.0002684167209832111,True,21.90895636265563,7.201125717462228,0.0026661698581205537,False,True,off_settled_base,False
9,AIDC09,m1069420,Line.ln5866268-1,Primary,0.4221267687128206,1,2,0.00012147233371978539,6.693836029914024e-07,0.048588933487914154,0.00026775344119656097,True,21.90895636265563,7.201125717462228,0.002666152374215069,False,True,off_settled_base,False
9,AIDC09,m1069420,Line.ln5473440-1,Primary,0.4221266854847026,1,2,0.00012147201826648302,6.67323424685673e-07,0.04858880730659321,0.0002669293698742692,True,21.90895636265563,7.201125717462228,0.0026661306273594526,False,True,off_settled_base,False
9,AIDC09,m1069420,Line.ln6261021-1,Primary,0.42212655242438385,1,2,0.00012147154575656294,6.642548050217467e-07,0.048588618302625175,0.0002657019220086987,True,21.90895636265563,7.201125717462228,0.002666098177644254,False,True,off_settled_base,False
9,AIDC10,m1125962,Line.ln6504019-5,Primary,0.4221268703189323,1,2,0.00011656319760772194,9.426239861998198e-07,0.046625279043088774,0.0003770495944799279,True,43.81791312042446,14.402251564791882,0.005121131973594284,False,True,off_settled_base,False
9,AIDC10,m1125962,Line.ln6048634-1,Primary,0.4221268321375308,1,2,0.00011656311711177869,9.416008837082046e-07,0.046625246844711477,0.00037664035348328184,True,43.81791312042446,14.402251564791882,0.005121113711450576,False,True,off_settled_base,False
9,AIDC10,m1125962,Line.ln5866268-1,Primary,0.4221267687128206,1,2,0.00011656298863629844,9.399705094281785e-07,0.046625195454519375,0.0003759882037712714,True,43.81791312042446,14.402251564791882,0.005121084600862618,False,True,off_settled_base,False
9,AIDC10,m1125962,Line.ln5473440-1,Primary,0.4221266854847026,1,2,0.0001165628272770669,9.3794497840749e-07,0.04662513091082676,0.000375177991362996,True,43.81791312042446,14.402251564791882,0.005121048358230518,False,True,off_settled_base,False
9,AIDC10,m1125962,Line.ln6261021-1,Primary,0.42212655242438385,1,2,0.00011656258472894643,9.349279316561709e-07,0.04662503389157857,0.0003739711726624684,True,43.81791312042446,14.402251564791882,0.005120994278011752,False,True,off_settled_base,False
9,AIDC11,m1026872,Line.ln6504019-5,Primary,0.4221268703189323,1,2,0.00012068979516663414,3.035246775029421e-07,0.048275918066653656,0.00012140987100117684,True,21.90895636265563,7.201125717462228,0.0026463731750846846,False,True,off_settled_base,False
9,AIDC11,m1026872,Line.ln6048634-1,Primary,0.4221268321375308,1,2,0.00012068963681269307,3.0248704710467145e-07,0.04827585472507723,0.00012099481884186858,True,21.90895636265563,7.201125717462228,0.002646362233608154,False,True,off_settled_base,False
9,AIDC11,m1026872,Line.ln5866268-1,Primary,0.4221267687128206,1,2,0.0001206893833383682,3.008333978593569e-07,0.04827575333534728,0.00012033335914374277,True,21.90895636265563,7.201125717462228,0.0026463447721141228,False,True,off_settled_base,False
9,AIDC11,m1026872,Line.ln5473440-1,Primary,0.4221266854847026,1,2,0.00012068906711484861,2.9877922508303456e-07,0.048275626845939446,0.00011951169003321382,True,21.90895636265563,7.201125717462228,0.002646323051630424,False,True,off_settled_base,False
9,AIDC11,m1026872,Line.ln6261021-1,Primary,0.42212655242438385,1,2,0.00012068859348923766,2.9571938459094227e-07,0.048275437395695064,0.00011828775383637691,True,21.90895636265563,7.201125717462228,0.002646290640691522,False,True,off_settled_base,False
9,AIDC12,m1142875,Line.ln6504019-5,Primary,0.4221268703189323,1,2,0.00011616722521895495,1.0772144202197964e-06,0.04646689008758198,0.00043088576808791856,True,43.81791312042446,14.402251564791882,0.005105719695154175,False,True,off_settled_base,False
9,AIDC12,m1142875,Line.ln6048634-1,Primary,0.4221268321375308,1,2,0.00011616715493192875,1.076193479665477e-06,0.0464668619727715,0.00043047739186619083,True,43.81791312042446,14.402251564791882,0.005105701911480673,False,True,off_settled_base,False
9,AIDC12,m1142875,Line.ln5866268-1,Primary,0.4221267687128206,1,2,0.00011616704246286691,1.07456677841955e-06,0.046466816985146764,0.00042982671136782,True,43.81791312042446,14.402251564791882,0.005105673555160528,False,True,off_settled_base,False
9,AIDC12,m1142875,Line.ln5473440-1,Primary,0.4221266854847026,1,2,0.0001161669012729738,1.072545587704754e-06,0.04646676050918952,0.0004290182350819016,True,43.81791312042446,14.402251564791882,0.005105638258816923,False,True,off_settled_base,False
9,AIDC12,m1142875,Line.ln6261021-1,Primary,0.42212655242438385,1,2,0.00011616668855171652,1.0695353026279886e-06,0.04646667542068661,0.00042781412105119543,True,43.81791312042446,14.402251564791882,0.005105585582932395,False,True,off_settled_base,False
9,STA01,sx2955055b,Line.ln6504019-5,Primary,0.4221268703189323,1,2,0.00035359087218736485,1.3117601506157373e-05,0.14143634887494594,0.005247040602462949,True,5.0,0.0,0.0017679543609368242,True,True,off_settled_base,False
9,STA01,sx2955055b,Line.ln6048634-1,Primary,0.4221268321375308,1,2,0.0003535905586289356,1.3114499053223927e-05,0.14143622345157425,0.005245799621289571,True,5.0,0.0,0.0017679527931446781,True,True,off_settled_base,False
9,STA01,sx2955055b,Line.ln5866268-1,Primary,0.4221267687128206,1,2,0.0003535900563391148,1.3109555707602194e-05,0.1414360225356459,0.005243822283040878,True,5.0,0.0,0.0017679502816955739,True,True,off_settled_base,False
9,STA01,sx2955055b,Line.ln5473440-1,Primary,0.4221266854847026,1,2,0.0003535894284147634,1.3103413399856434e-05,0.14143577136590535,0.005241365359942574,True,5.0,0.0,0.0017679471420738169,True,True,off_settled_base,False
9,STA01,sx2955055b,Line.ln6261021-1,Primary,0.42212655242438385,1,2,0.0003535884845933812,1.3094264553370483e-05,0.14143539383735249,0.005237705821348193,True,5.0,0.0,0.001767942422966906,True,True,off_settled_base,False
9,STA02,sx2992657a,Line.ln6504019-5,Primary,0.4221268703189323,1,2,-8.248810026173503e-06,-1.917246725047228e-06,-0.0032995240104694012,-0.0007668986900188912,True,5.0,0.0,-4.1244050130867516e-05,True,True,off_settled_base,False
9,STA02,sx2992657a,Line.ln6048634-1,Primary,0.4221268321375308,1,2,-8.248747387001876e-06,-1.9173159993002287e-06,-0.0032994989548007503,-0.0007669263997200915,True,5.0,0.0,-4.124373693500938e-05,True,True,off_settled_base,False
9,STA02,sx2992657a,Line.ln5866268-1,Primary,0.4221267687128206,1,2,-8.248647264119668e-06,-1.9174263682919523e-06,-0.0032994589056478674,-0.0007669705473167809,True,5.0,0.0,-4.124323632059834e-05,True,True,off_settled_base,False
9,STA02,sx2992657a,Line.ln5473440-1,Primary,0.4221266854847026,1,2,-8.24852273131893e-06,-1.91756387268871e-06,-0.003299409092527572,-0.000767025549075484,True,5.0,0.0,-4.124261365659465e-05,True,True,off_settled_base,False
9,STA02,sx2992657a,Line.ln6261021-1,Primary,0.42212655242438385,1,2,-8.248336810623424e-06,-1.917769284542903e-06,-0.00329933472424937,-0.0007671077138171611,True,5.0,0.0,-4.124168405311712e-05,True,True,off_settled_base,False
9,STA03,sx2936211c,Line.ln6504019-5,Primary,0.4221268703189323,1,2,5.509131968534087e-06,-8.414567847198073e-06,0.0022036527874136347,-0.0033658271388792294,True,5.0,0.0,2.7545659842670434e-05,True,True,off_settled_base,False
9,STA03,sx2936211c,Line.ln6048634-1,Primary,0.4221268321375308,1,2,5.5091779227189885e-06,-8.41443372051609e-06,0.0022036711690875954,-0.003365773488206436,True,5.0,0.0,2.7545889613594943e-05,True,True,off_settled_base,False
9,STA03,sx2936211c,Line.ln5866268-1,Primary,0.4221267687128206,1,2,5.509251385760194e-06,-8.414219453301008e-06,0.0022037005543040777,-0.0033656877813204034,True,5.0,0.0,2.7546256928800972e-05,True,True,off_settled_base,False
9,STA03,sx2936211c,Line.ln5473440-1,Primary,0.4221266854847026,1,2,5.5093426941654755e-06,-8.413952642033484e-06,0.00220373707766619,-0.0033655810568133937,True,5.0,0.0,2.7546713470827378e-05,True,True,off_settled_base,False
9,STA03,sx2936211c,Line.ln6261021-1,Primary,0.42212655242438385,1,2,5.50947865804452e-06,-8.413554643066368e-06,0.002203791463217808,-0.003365421857226547,True,5.0,0.0,2.75473932902226e-05,True,True,off_settled_base,False
9,STA04,sx3085394c,Line.ln6504019-5,Primary,0.4221268703189323,1,2,5.2731588611742986e-06,-6.7178791797462e-06,0.0021092635444697194,-0.00268715167189848,True,5.0,0.0,2.6365794305871493e-05,True,True,off_settled_base,False
9,STA04,sx3085394c,Line.ln6048634-1,Primary,0.4221268321375308,1,2,5.273205373135248e-06,-6.717767152109033e-06,0.002109282149254099,-0.0026871068608436133,True,5.0,0.0,2.636602686567624e-05,True,True,off_settled_base,False
9,STA04,sx3085394c,Line.ln5866268-1,Primary,0.4221267687128206,1,2,5.273279677947551e-06,-6.717587924698343e-06,0.0021093118711790204,-0.002687035169879337,True,5.0,0.0,2.6366398389737755e-05,True,True,off_settled_base,False
9,STA04,sx3085394c,Line.ln5473440-1,Primary,0.4221266854847026,1,2,5.273372099962037e-06,-6.717365163777522e-06,0.002109348839984815,-0.002686946065511009,True,5.0,0.0,2.6366860499810185e-05,True,True,off_settled_base,False
9,STA04,sx3085394c,Line.ln6261021-1,Primary,0.42212655242438385,1,2,5.2735096361666844e-06,-6.7170324902776635e-06,0.0021094038544666738,-0.0026868129961110654,True,5.0,0.0,2.6367548180833422e-05,True,True,off_settled_base,False
...
